#======================================================================

# CRYSTAL DATA

#----------------------------------------------------------------------

data_VESTA_phase_1


_pd_phase_name                         'POSCAR\(3)                            '
_cell_length_a                         9.84000
_cell_length_b                         9.84000
_cell_length_c                         18.40000
_cell_angle_alpha                      90
_cell_angle_beta                       90
_cell_angle_gamma                      60.00000
_symmetry_space_group_name_H-M         'P 1'
_symmetry_Int_Tables_number            1

loop_
_symmetry_equiv_pos_as_xyz
   'x, y, z'

loop_
   _atom_site_label
   _atom_site_occupancy
   _atom_site_fract_x
   _atom_site_fract_y
   _atom_site_fract_z
   _atom_site_adp_type
   _atom_site_B_iso_or_equiv
   _atom_site_type_symbol
   Co1        1.0     0.549310      0.412374      0.225148     Biso  1.000000 Co
   Cu1        1.0     0.524485      0.700941      0.246635     Biso  1.000000 Cu
   C1         1.0     0.999912      0.000861      0.185637     Biso  1.000000 C
   C2         1.0     0.088460      0.078006      0.186404     Biso  1.000000 C
   C3         1.0     0.254589      0.985789      0.191053     Biso  1.000000 C
   C4         1.0     0.339301      0.070519      0.192665     Biso  1.000000 C
   C5         1.0     0.507894      0.992828      0.195612     Biso  1.000000 C
   C6         1.0     0.579302      0.089699      0.193801     Biso  1.000000 C
   C7         1.0     0.747905      0.009915      0.190400     Biso  1.000000 C
   C8         1.0     0.833106      0.093772      0.188858     Biso  1.000000 C
   C9         1.0     0.008675      0.245578      0.185745     Biso  1.000000 C
   C10        1.0     0.089038      0.328834      0.185422     Biso  1.000000 C
   C11        1.0     0.254806      0.240806      0.188252     Biso  1.000000 C
   C12        1.0     0.334176      0.327613      0.190081     Biso  1.000000 C
   C13        1.0     0.842761      0.333519      0.189377     Biso  1.000000 C
   C14        1.0     0.002671      0.497168      0.185030     Biso  1.000000 C
   C15        1.0     0.082907      0.582722      0.184146     Biso  1.000000 C
   C16        1.0     0.248517      0.501261      0.187358     Biso  1.000000 C
   C17        1.0     0.836438      0.577792      0.189361     Biso  1.000000 C
   C18        1.0     0.998086      0.751130      0.183567     Biso  1.000000 C
   C19        1.0     0.080193      0.833112      0.184231     Biso  1.000000 C
   C20        1.0     0.247256      0.745199      0.188753     Biso  1.000000 C
   C21        1.0     0.751833      0.752751      0.191431     Biso  1.000000 C
   C22        1.0     0.832167      0.839156      0.186778     Biso  1.000000 C
   N1         1.0     0.492331      0.250059      0.195791     Biso  1.000000 N
   N2         1.0     0.328944      0.582477      0.190194     Biso  1.000000 N
   N3         1.0     0.760856      0.255797      0.191950     Biso  1.000000 N
   N4         1.0     0.327292      0.823687      0.195018     Biso  1.000000 N
   N5         1.0     0.758921      0.494678      0.192994     Biso  1.000000 N
   N6         1.0     0.594844      0.832904      0.200171     Biso  1.000000 N
   O1         1.0     0.539960      0.459080      0.324331     Biso  1.000000 O
   O2         1.0     0.524606      0.605235      0.332784     Biso  1.000000 O
