#======================================================================

# CRYSTAL DATA

#----------------------------------------------------------------------

data_VESTA_phase_1


_pd_phase_name                         'POSCAR\(3)                            '
_cell_length_a                         9.84000
_cell_length_b                         9.84000
_cell_length_c                         18.40000
_cell_angle_alpha                      90
_cell_angle_beta                       90
_cell_angle_gamma                      60.00000
_symmetry_space_group_name_H-M         'P 1'
_symmetry_Int_Tables_number            1

loop_
_symmetry_equiv_pos_as_xyz
   'x, y, z'

loop_
   _atom_site_label
   _atom_site_occupancy
   _atom_site_fract_x
   _atom_site_fract_y
   _atom_site_fract_z
   _atom_site_adp_type
   _atom_site_B_iso_or_equiv
   _atom_site_type_symbol
   Co1        1.0     0.543996      0.420184      0.195359     Biso  1.000000 Co
   Cu1        1.0     0.545435      0.663022      0.195311     Biso  1.000000 Cu
   C1         1.0    -0.001504      0.002044      0.194382     Biso  1.000000 C
   C2         1.0     0.087795      0.078114      0.194363     Biso  1.000000 C
   C3         1.0     0.254936      0.984558      0.194360     Biso  1.000000 C
   C4         1.0     0.338399      0.070018      0.193500     Biso  1.000000 C
   C5         1.0     0.507353     -0.006842      0.193104     Biso  1.000000 C
   C6         1.0     0.577292      0.091548      0.193406     Biso  1.000000 C
   C7         1.0     0.746551      0.011962      0.193763     Biso  1.000000 C
   C8         1.0     0.831794      0.094869      0.194434     Biso  1.000000 C
   C9         1.0     0.007228      0.246142      0.193888     Biso  1.000000 C
   C10        1.0     0.087244      0.329672      0.193122     Biso  1.000000 C
   C11        1.0     0.252863      0.240614      0.193054     Biso  1.000000 C
   C12        1.0     0.330797      0.328185      0.193020     Biso  1.000000 C
   C13        1.0     0.841617      0.334813      0.194356     Biso  1.000000 C
   C14        1.0     0.001846      0.497822      0.192760     Biso  1.000000 C
   C15        1.0     0.080594      0.584016      0.192755     Biso  1.000000 C
   C16        1.0     0.244963      0.500404      0.193193     Biso  1.000000 C
   C17        1.0     0.836866      0.581718      0.193136     Biso  1.000000 C
   C18        1.0     0.996743      0.752248      0.193186     Biso  1.000000 C
   C19        1.0     0.078208      0.834436      0.193911     Biso  1.000000 C
   C20        1.0     0.244049      0.745883      0.194381     Biso  1.000000 C
   C21        1.0     0.752128      0.754883      0.192886     Biso  1.000000 C
   C22        1.0     0.831504      0.841228      0.193205     Biso  1.000000 C
   N1         1.0     0.490075      0.250595      0.193459     Biso  1.000000 N
   N2         1.0     0.324632      0.582798      0.194122     Biso  1.000000 N
   N3         1.0     0.758794      0.258319      0.195022     Biso  1.000000 N
   N4         1.0     0.327436      0.820879      0.195052     Biso  1.000000 N
   N5         1.0     0.758748      0.497521      0.194126     Biso  1.000000 N
   N6         1.0     0.593601      0.834947      0.192784     Biso  1.000000 N
