#======================================================================

# CRYSTAL DATA

#----------------------------------------------------------------------

data_VESTA_phase_1


_pd_phase_name                         'POSCAR                                '
_cell_length_a                         9.84000
_cell_length_b                         9.84000
_cell_length_c                         18.40000
_cell_angle_alpha                      90
_cell_angle_beta                       90
_cell_angle_gamma                      60.00000
_symmetry_space_group_name_H-M         'P 1'
_symmetry_Int_Tables_number            1

loop_
_symmetry_equiv_pos_as_xyz
   'x, y, z'

loop_
   _atom_site_label
   _atom_site_occupancy
   _atom_site_fract_x
   _atom_site_fract_y
   _atom_site_fract_z
   _atom_site_adp_type
   _atom_site_B_iso_or_equiv
   _atom_site_type_symbol
   Co1        1.0     0.549437      0.427017      0.219332     Biso  1.000000 Co
   Cu1        1.0     0.519265      0.716269      0.264193     Biso  1.000000 Cu
   C1         1.0    -0.003417     -0.001470      0.185289     Biso  1.000000 C
   C2         1.0     0.086092      0.074937      0.187108     Biso  1.000000 C
   C3         1.0     0.251483      0.983570      0.195222     Biso  1.000000 C
   C4         1.0     0.334599      0.070571      0.195346     Biso  1.000000 C
   C5         1.0     0.502872     -0.005715      0.195202     Biso  1.000000 C
   C6         1.0     0.574861      0.090814      0.193382     Biso  1.000000 C
   C7         1.0     0.743288      0.008396      0.188602     Biso  1.000000 C
   C8         1.0     0.829698      0.091016      0.186074     Biso  1.000000 C
   C9         1.0     0.006415      0.242299      0.183689     Biso  1.000000 C
   C10        1.0     0.084644      0.327681      0.185425     Biso  1.000000 C
   C11        1.0     0.250524      0.240525      0.190353     Biso  1.000000 C
   C12        1.0     0.330380      0.327599      0.191425     Biso  1.000000 C
   C13        1.0     0.840674      0.329261      0.182375     Biso  1.000000 C
   C14        1.0    -0.003695      0.496159      0.184032     Biso  1.000000 C
   C15        1.0     0.077047      0.581609      0.184772     Biso  1.000000 C
   C16        1.0     0.242659      0.500915      0.187924     Biso  1.000000 C
   C17        1.0     0.829328      0.575605      0.183955     Biso  1.000000 C
   C18        1.0     0.992896      0.749945      0.183276     Biso  1.000000 C
   C19        1.0     0.076314      0.831091      0.185107     Biso  1.000000 C
   C20        1.0     0.243796      0.743677      0.191370     Biso  1.000000 C
   C21        1.0     0.744259      0.751786      0.187846     Biso  1.000000 C
   C22        1.0     0.826339      0.837633      0.185023     Biso  1.000000 C
   N1         1.0     0.488729      0.252296      0.196257     Biso  1.000000 N
   N2         1.0     0.322937      0.581793      0.189236     Biso  1.000000 N
   N3         1.0     0.757433      0.252707      0.186125     Biso  1.000000 N
   N4         1.0     0.324274      0.821040      0.202585     Biso  1.000000 N
   N5         1.0     0.754862      0.489586      0.182033     Biso  1.000000 N
   N6         1.0     0.587251      0.833880      0.195943     Biso  1.000000 N
   O1         1.0     0.528748      0.523037      0.300079     Biso  1.000000 O
   O2         1.0     0.652529      0.719692      0.328907     Biso  1.000000 O
